welome to git intoduction.
git introduction.

new line.
asdfghjklq
sdfghjk